  Page 1                                    Thu May 02 19:08:34 2019

  ******************************************************************
  *                           E P A N E T                          *
  *                   Hydraulic and Water Quality                  *
  *                   Analysis for Pipe Networks                   *
  *                         Version 2.00.12                        *
  ******************************************************************
  
   
      Input Data File ................... temp.inp
      Number of Junctions................ 53
      Number of Reservoirs............... 1
      Number of Tanks ................... 0
      Number of Pipes ................... 53
      Number of Pumps ................... 0
      Number of Valves .................. 0
      Headloss Formula .................. Hazen-Williams
      Hydraulic Timestep ................ 15.00 min
      Hydraulic Accuracy ................ 0.001000
      Status Check Frequency ............ 2
      Maximum Trials Checked ............ 10
      Damping Limit Threshold ........... 0.000000
      Maximum Trials .................... 40
      Quality Analysis .................. None
      Specific Gravity .................. 1.00
      Relative Kinematic Viscosity ...... 1.00
      Relative Chemical Diffusivity ..... 1.00
      Demand Multiplier ................. 1.00
      Total Duration .................... 1440.00 min
      Reporting Criteria:
         No Nodes
         No Links
   
  Analysis begun Thu May 02 19:08:34 2019

  WARNING: Negative pressures at 0:00:00 hrs.
  
  WARNING: Negative pressures at 0:15:00 hrs.
  
  WARNING: Negative pressures at 0:30:00 hrs.
  
  WARNING: Negative pressures at 0:45:00 hrs.
  
  WARNING: Negative pressures at 1:00:00 hrs.
  
  WARNING: Negative pressures at 1:15:00 hrs.
  
  WARNING: Negative pressures at 1:30:00 hrs.
  
  WARNING: Negative pressures at 1:45:00 hrs.
  
  WARNING: Negative pressures at 2:00:00 hrs.
  
  WARNING: Negative pressures at 2:15:00 hrs.
  
  WARNING: Negative pressures at 2:30:00 hrs.
  
  WARNING: Negative pressures at 2:45:00 hrs.
  
  WARNING: Negative pressures at 3:00:00 hrs.
  
  WARNING: Negative pressures at 3:15:00 hrs.
  
  WARNING: Negative pressures at 3:30:00 hrs.
  
  WARNING: Negative pressures at 3:45:00 hrs.
  
  WARNING: Negative pressures at 4:00:00 hrs.
  
  WARNING: Negative pressures at 4:15:00 hrs.
  
  WARNING: Negative pressures at 4:30:00 hrs.
  
  WARNING: Negative pressures at 4:45:00 hrs.
  
  WARNING: Negative pressures at 5:00:00 hrs.
  
  WARNING: Negative pressures at 5:15:00 hrs.
  
  WARNING: Negative pressures at 5:30:00 hrs.
  
  WARNING: Negative pressures at 5:45:00 hrs.
  
  WARNING: Negative pressures at 6:00:00 hrs.
  
  WARNING: Negative pressures at 6:15:00 hrs.
  
  WARNING: Negative pressures at 6:30:00 hrs.
  
  WARNING: Negative pressures at 6:45:00 hrs.
  
  WARNING: Negative pressures at 7:00:00 hrs.
  
  WARNING: Negative pressures at 7:15:00 hrs.
  
  WARNING: Negative pressures at 7:30:00 hrs.
  
  WARNING: Negative pressures at 7:45:00 hrs.
  
  WARNING: Negative pressures at 8:00:00 hrs.
  
  WARNING: Negative pressures at 8:15:00 hrs.
  
  WARNING: Negative pressures at 8:30:00 hrs.
  
  WARNING: Negative pressures at 8:45:00 hrs.
  
  WARNING: Negative pressures at 9:00:00 hrs.
  
  WARNING: Negative pressures at 9:15:00 hrs.
  
  WARNING: Negative pressures at 9:30:00 hrs.
  
  WARNING: Negative pressures at 9:45:00 hrs.
  
  WARNING: Negative pressures at 10:00:00 hrs.
  
  WARNING: Negative pressures at 10:15:00 hrs.
  
  WARNING: Negative pressures at 10:30:00 hrs.
  
  WARNING: Negative pressures at 10:45:00 hrs.
  
  WARNING: Negative pressures at 11:00:00 hrs.
  
  WARNING: Negative pressures at 11:15:00 hrs.
  
  WARNING: Negative pressures at 11:30:00 hrs.
  
  WARNING: Negative pressures at 11:45:00 hrs.
  
  WARNING: Negative pressures at 12:00:00 hrs.
  
  WARNING: Negative pressures at 12:15:00 hrs.
  
  WARNING: Negative pressures at 12:30:00 hrs.
  
  WARNING: Negative pressures at 12:45:00 hrs.
  
  WARNING: Negative pressures at 13:00:00 hrs.
  
  WARNING: Negative pressures at 13:15:00 hrs.
  
  WARNING: Negative pressures at 13:30:00 hrs.
  
  WARNING: Negative pressures at 13:45:00 hrs.
  
  WARNING: Negative pressures at 14:00:00 hrs.
  
  WARNING: Negative pressures at 14:15:00 hrs.
  
  WARNING: Negative pressures at 14:30:00 hrs.
  
  WARNING: Negative pressures at 14:45:00 hrs.
  
  WARNING: Negative pressures at 15:00:00 hrs.
  
  WARNING: Negative pressures at 15:15:00 hrs.
  
  WARNING: Negative pressures at 15:30:00 hrs.
  
  WARNING: Negative pressures at 15:45:00 hrs.
  
  WARNING: Negative pressures at 16:00:00 hrs.
  
  WARNING: Negative pressures at 16:15:00 hrs.
  
  WARNING: Negative pressures at 16:30:00 hrs.
  
  WARNING: Negative pressures at 16:45:00 hrs.
  
  WARNING: Negative pressures at 17:00:00 hrs.
  
  WARNING: Negative pressures at 17:15:00 hrs.
  
  WARNING: Negative pressures at 17:30:00 hrs.
  
  WARNING: Negative pressures at 17:45:00 hrs.
  
  WARNING: Negative pressures at 18:00:00 hrs.
  
  WARNING: Negative pressures at 18:15:00 hrs.
  
  WARNING: Negative pressures at 18:30:00 hrs.
  
  WARNING: Negative pressures at 18:45:00 hrs.
  
  WARNING: Negative pressures at 19:00:00 hrs.
  
  WARNING: Negative pressures at 19:15:00 hrs.
  
  WARNING: Negative pressures at 19:30:00 hrs.
  
  WARNING: Negative pressures at 19:45:00 hrs.
  
  WARNING: Negative pressures at 20:00:00 hrs.
  
  WARNING: Negative pressures at 20:15:00 hrs.
  
  WARNING: Negative pressures at 20:30:00 hrs.
  
  WARNING: Negative pressures at 20:45:00 hrs.
  
  WARNING: Negative pressures at 21:00:00 hrs.
  
  WARNING: Negative pressures at 21:15:00 hrs.
  
  WARNING: Negative pressures at 21:30:00 hrs.
  
  WARNING: Negative pressures at 21:45:00 hrs.
  
  WARNING: Negative pressures at 22:00:00 hrs.
  
  WARNING: Negative pressures at 22:15:00 hrs.
  
  WARNING: Negative pressures at 22:30:00 hrs.
  
  WARNING: Negative pressures at 22:45:00 hrs.
  
  WARNING: Negative pressures at 23:00:00 hrs.
  
  WARNING: Negative pressures at 23:15:00 hrs.
  
  WARNING: Negative pressures at 23:30:00 hrs.
  
  WARNING: Negative pressures at 23:45:00 hrs.
  
  WARNING: Negative pressures at 24:00:00 hrs.
  
  Analysis ended Thu May 02 19:08:34 2019
