  Page 1                                    Fri Nov 15 11:00:17 2019

  ******************************************************************
  *                           E P A N E T                          *
  *                   Hydraulic and Water Quality                  *
  *                   Analysis for Pipe Networks                   *
  *                         Version 2.00.12                        *
  ******************************************************************
  
  Input Error 230: Curve curve1 has nonincreasing x-values.
  Input Error 200: one or more errors in input file.